testData/Kundur-2area/Scenarios-LoadLevelChange/Kunder_2area_eachloadincrease70MW_ver30.raw
0,   100.00, 30, 0, 1,  60.00     / PSS(R)E 30 RAW created by rawd30  WED, DEC 06 2017  15:34
                               100.0

     1,'BUS1   AR1  ',  20.0000,2,     0.000,     0.000,   1,   1,1.03000,  20.2690,   1
     2,'BUS2   AR1  ',  20.0000,2,     0.000,     0.000,   1,   1,1.01000,   9.9475,   1
     3,'BUS3   AR2  ',  20.0000,3,     0.000,     0.000,   2,   2,1.03000,  -6.8000,   1
     4,'BUS4   AR2  ',  20.0000,2,     0.000,     0.000,   2,   2,1.01000, -17.7586,   1
     5,'BUS5   AR1  ', 230.0000,1,     0.000,     0.000,   1,   1,1.00332,  13.4612,   1
     6,'BUS6   AR1  ', 230.0000,1,     0.000,     0.000,   1,   1,0.97216,   2.7805,   1
     7,'BUS7   L    ', 230.0000,1,     0.000,   200.000,   1,   1,0.95242,  -6.1687,   1
     8,'BUS8        ', 230.0000,1,     0.000,     0.000,   2,   2,0.93914, -20.1662,   1
     9,'BUS9   L    ', 230.0000,1,     0.000,   350.000,   2,   2,0.96176, -33.9029,   1
    10,'BUS10   AR2 ', 230.0000,1,     0.000,     0.000,   2,   2,0.97671, -24.8919,   1
    11,'BUS11   AR2 ', 230.0000,1,     0.000,     0.000,   2,   2,1.00459, -13.8532,   1
 0 /End of Bus data, Begin Load data
     7,'BL',1,   1,   1,  1037.000,   100.000,     0.000,     0.000,     0.000,     0.000,   1
     9,'BL',1,   2,   2,  1837.000,   100.000,     0.000,     0.000,     0.000,     0.000,   1
 0 /End of Load data, Begin Generator data
     1,'1 ',   735.000,   208.629,   500.000,  -150.000,1.03000,     0,   900.000,   0.00250,   0.30000,   0.00000,   0.00000,1.00000,1,  100.0,  9999.000, -9999.000,   1,1.0000
     2,'1 ',   735.000,   275.336,   500.000,  -150.000,1.01000,     0,   900.000,   0.00250,   0.25000,   0.00000,   0.00000,1.00000,1,  100.0,  9999.000, -9999.000,   1,1.0000
     3,'1 ',   762.328,   204.027,   500.000,  -150.000,1.03000,     0,   900.000,   0.00250,   0.25000,   0.00000,   0.00000,1.00000,1,  100.0,  9999.000, -9999.000,   1,1.0000
     4,'1 ',   735.000,   247.537,   500.000,  -150.000,1.01000,     0,   900.000,   0.00250,   0.25000,   0.00000,   0.00000,1.00000,1,  100.0,  9999.000, -9999.000,   1,1.0000
 0 /End of Generator data, Begin Branch data
     5,      6,'1 ',   0.00250,   0.02500,   0.04375,    0.00,    0.00,    0.00,  0.00000,  0.00000,  0.00000,  0.00000,1,   0.00,   1,1.0000
     6,      7,'1 ',   0.00100,   0.01000,   0.01750,    0.00,    0.00,    0.00,  0.00000,  0.00000,  0.00000,  0.00000,1,   0.00,   1,1.0000
     7,      8,'1 ',   0.01100,   0.11000,   0.19250,    0.00,    0.00,    0.00,  0.00000,  0.00000,  0.00000,  0.00000,1,   0.00,   1,1.0000
     7,      8,'2 ',   0.01100,   0.11000,   0.19250,    0.00,    0.00,    0.00,  0.00000,  0.00000,  0.00000,  0.00000,1,   0.00,   1,1.0000
     8,      9,'1 ',   0.01100,   0.11000,   0.19250,    0.00,    0.00,    0.00,  0.00000,  0.00000,  0.00000,  0.00000,1,   0.00,   1,1.0000
     8,      9,'2 ',   0.01100,   0.11000,   0.19250,    0.00,    0.00,    0.00,  0.00000,  0.00000,  0.00000,  0.00000,1,   0.00,   1,1.0000
     9,     10,'1 ',   0.00100,   0.01000,   0.01750,    0.00,    0.00,    0.00,  0.00000,  0.00000,  0.00000,  0.00000,1,   0.00,   1,1.0000
    10,     11,'1 ',   0.00250,   0.02500,   0.04375,    0.00,    0.00,    0.00,  0.00000,  0.00000,  0.00000,  0.00000,1,   0.00,   1,1.0000
 0 /End of Branch data, Begin Transformer data
     1,     5,     0,'1 ',1,2,1,   0.00000,   0.00000,2,'            ',1,   1,1.0000
   0.00000,   0.15000,   900.00
1.00000,   0.000,   0.000,     0.00,     0.00,     0.00, 1,      0, 1.10000, 0.90000, 1.17000, 0.91000,  33, 0, 0.00000, 0.00000
1.00000,   0.000
     2,     6,     0,'1 ',1,2,1,   0.00000,   0.00000,2,'            ',1,   1,1.0000
   0.00000,   0.15000,   900.00
1.00000,   0.000,   0.000,     0.00,     0.00,     0.00, 1,      0, 1.10000, 0.90000, 1.17000, 0.91000,  33, 0, 0.00000, 0.00000
1.00000,   0.000
     3,    11,     0,'1 ',1,2,1,   0.00000,   0.00000,2,'            ',1,   1,1.0000
   0.00000,   0.15000,   900.00
1.00000,   0.000,   0.000,     0.00,     0.00,     0.00, 1,      0, 1.10000, 0.90000, 1.17000, 0.91000,  33, 0, 0.00000, 0.00000
1.00000,   0.000
     4,    10,     0,'1 ',1,2,1,   0.00000,   0.00000,2,'            ',1,   1,1.0000
   0.00000,   0.15000,   900.00
1.00000,   0.000,   0.000,     0.00,     0.00,     0.00, 1,      0, 1.10000, 0.90000, 1.17000, 0.91000,  33, 0, 0.00000, 0.00000
1.00000,   0.000
 0 /End of Transformer data, Begin Area interchange data
   1,     1,   600.000,     3.000,'AREA1       '
   2,     3,  -600.000,     3.000,'AREA2       '
 0 /End of Area interchange data, Begin Two-terminal dc line data
 0 /End of Two-terminal dc line data, Begin VSC dc line data
 0 /End of VSC dc line data, Begin Switched shunt data
 0 /End of Switched shunt data, Begin Impedance correction table data
 0 /End of Impedance correction table data, Begin Multi-terminal dc line data
 0 /End of Multi-terminal dc line data, Begin Multi-section line data
 0 /End of Multi-section line data, Begin Zone data
 0 /End of Zone data, Begin Inter-area transfer data
 0 /End of Inter-area transfer data, Begin Owner data
 0 /End of Owner data, Begin FACTS device data
 0 /End of FACTS device data
